RESTART_CHECKSUMS_REQUIRED = False
NIGLOBAL = 240
NJGLOBAL = 560
DT = 600. !900.

! === module MOM_diag_mediator ===
DIAG_COODS  = "z Z ZSTAR"
DIAG_COORD_DEF_Z = "PARAM"
DIAG_COORD_RES_Z = 5.0, 10.0, 20.0, 50.0, 100.0, 3815.0 ! [m]

! === module MOM_lateral_mixing_coeffs ===
USE_VARIABLE_MIXING = True     !   [Boolean] default = False
                                ! If true, the variable mixing code will be called.  This allows diagnostics to
                                ! be created even if the scheme is not used.  If KHTR_SLOPE_CFF>0 or
                                ! KhTh_Slope_Cff>0, this is set to true regardless of what is in the parameter
                                ! file.

! === module MOM_thickness_diffuse ===
LAPLACIAN =  False               !   [Boolean] default = False
                                ! If true, use a Laplacian horizontal viscosity.
BIHARMONIC = True               !   [Boolean] default = True
                                ! If true, use a biharmonic horizontal viscosity. BIHARMONIC may be used with
                                ! LAPLACIAN.
THICKNESSDIFFUSE = False         !   [Boolean] default = False
                                ! If true, interface heights are diffused with a coefficient of KHTH.
USE_STORED_SLOPES = True
